Circuit: * C:\Users\Adrian\Dropbox\uni\EA\proiect\surse\analiza_ex4.asc

Direct Newton iteration for .op point succeeded.

Date: Fri Jan 27 18:51:16 2023
Total elapsed time: 0.135 seconds.

tnom = 27
temp = 27
method = modified trap
totiter = 3125
traniter = 3122
tranpoints = 1562
accept = 1474
rejected = 88
matrix size = 22
fillins = 25
solver = Normal
Matrix Compiler1: 2.19 KB object code size  0.6/0.6/[0.2]
Matrix Compiler2: 2.98 KB object code size  0.3/0.5/[0.3]

