Circuit: * C:\Users\Adrian\Dropbox\uni\ED\Referate Laborator\Lab3.asc

Warning: Multiple definitions of model "2scr375p" Type: BJT
Warning: Multiple definitions of model "bc857b" Type: BJT
Warning: Multiple definitions of model "bc847c" Type: BJT
Warning: Multiple definitions of model "bc847b" Type: BJT
Direct Newton iteration for .op point succeeded.

Date: Mon May  8 18:57:08 2023
Total elapsed time: 0.061 seconds.

tnom = 27
temp = 27
method = modified trap
totiter = 2706
traniter = 2698
tranpoints = 1166
accept = 1124
rejected = 42
matrix size = 19
fillins = 2
solver = Normal
Avg thread counts: 1.5/2.2/2.1/1.5
Matrix Compiler1:      63 opcodes  0.2/[0.2]/0.2
Matrix Compiler2: off  [0.1]/0.2/0.2

